butane
     RDKit          3D

 14 13  0  0  0  0  0  0  0  0999 V2000
   -1.9276    0.1420    0.0988 C   0  0  0  0  0  0  0  0  0  0  0  0
   -0.5213    0.3360   -0.4456 C   0  0  0  0  0  0  0  0  0  0  0  0
    0.5213   -0.3360    0.4456 C   0  0  0  0  0  0  0  0  0  0  0  0
    1.9276   -0.1420   -0.0988 C   0  0  0  0  0  0  0  0  0  0  0  0
   -2.1824   -0.9210    0.1575 H   0  0  0  0  0  0  0  0  0  0  0  0
   -2.0239    0.5745    1.0998 H   0  0  0  0  0  0  0  0  0  0  0  0
   -2.6575    0.6307   -0.5541 H   0  0  0  0  0  0  0  0  0  0  0  0
   -0.4677   -0.0781   -1.4592 H   0  0  0  0  0  0  0  0  0  0  0  0
   -0.3101    1.4090   -0.5222 H   0  0  0  0  0  0  0  0  0  0  0  0
    0.4677    0.0781    1.4592 H   0  0  0  0  0  0  0  0  0  0  0  0
    0.3101   -1.4090    0.5222 H   0  0  0  0  0  0  0  0  0  0  0  0
    2.1824    0.9210   -0.1575 H   0  0  0  0  0  0  0  0  0  0  0  0
    2.0239   -0.5745   -1.0998 H   0  0  0  0  0  0  0  0  0  0  0  0
    2.6575   -0.6307    0.5541 H   0  0  0  0  0  0  0  0  0  0  0  0
  1  2  1  0
  2  3  1  0
  3  4  1  0
  1  5  1  0
  1  6  1  0
  1  7  1  0
  2  8  1  0
  2  9  1  0
  3 10  1  0
  3 11  1  0
  4 12  1  0
  4 13  1  0
  4 14  1  0
M  END
>  <forcefield>
MMFF94

>  <energy>
-5.0760

>  <delta_energy>
0.0000

>  <conformer>
1

>  <energy_before>
3.8100

$$$$
