butane
     RDKit          3D

 14 13  0  0  0  0  0  0  0  0999 V2000
   -1.9276    0.1420    0.0988 C   0  0  0  0  0  0  0  0  0  0  0  0
   -0.5213    0.3360   -0.4456 C   0  0  0  0  0  0  0  0  0  0  0  0
    0.5213   -0.3360    0.4456 C   0  0  0  0  0  0  0  0  0  0  0  0
    1.9276   -0.1420   -0.0988 C   0  0  0  0  0  0  0  0  0  0  0  0
   -2.1824   -0.9210    0.1575 H   0  0  0  0  0  0  0  0  0  0  0  0
   -2.0239    0.5745    1.0998 H   0  0  0  0  0  0  0  0  0  0  0  0
   -2.6575    0.6307   -0.5541 H   0  0  0  0  0  0  0  0  0  0  0  0
   -0.4677   -0.0781   -1.4592 H   0  0  0  0  0  0  0  0  0  0  0  0
   -0.3101    1.4090   -0.5222 H   0  0  0  0  0  0  0  0  0  0  0  0
    0.4677    0.0781    1.4592 H   0  0  0  0  0  0  0  0  0  0  0  0
    0.3101   -1.4090    0.5222 H   0  0  0  0  0  0  0  0  0  0  0  0
    2.1824    0.9210   -0.1575 H   0  0  0  0  0  0  0  0  0  0  0  0
    2.0239   -0.5745   -1.0998 H   0  0  0  0  0  0  0  0  0  0  0  0
    2.6575   -0.6307    0.5541 H   0  0  0  0  0  0  0  0  0  0  0  0
  1  2  1  0
  2  3  1  0
  3  4  1  0
  1  5  1  0
  1  6  1  0
  1  7  1  0
  2  8  1  0
  2  9  1  0
  3 10  1  0
  3 11  1  0
  4 12  1  0
  4 13  1  0
  4 14  1  0
M  END
>  <forcefield>
MMFF94

>  <energy>
-5.0760

>  <delta_energy>
0.0000

>  <conformer>
1

>  <energy_before>
3.8100

$$$$
butane
     RDKit          3D

 14 13  0  0  0  0  0  0  0  0999 V2000
   -1.5027    0.6519    0.3244 C   0  0  0  0  0  0  0  0  0  0  0  0
   -0.7019   -0.2330   -0.6184 C   0  0  0  0  0  0  0  0  0  0  0  0
    0.5970   -0.7570   -0.0053 C   0  0  0  0  0  0  0  0  0  0  0  0
    1.6076    0.3381    0.2993 C   0  0  0  0  0  0  0  0  0  0  0  0
   -0.9709    1.5806    0.5512 H   0  0  0  0  0  0  0  0  0  0  0  0
   -1.7134    0.1341    1.2654 H   0  0  0  0  0  0  0  0  0  0  0  0
   -2.4590    0.9215   -0.1353 H   0  0  0  0  0  0  0  0  0  0  0  0
   -0.4834    0.3199   -1.5395 H   0  0  0  0  0  0  0  0  0  0  0  0
   -1.3229   -1.0907   -0.9034 H   0  0  0  0  0  0  0  0  0  0  0  0
    1.0520   -1.4659   -0.7073 H   0  0  0  0  0  0  0  0  0  0  0  0
    0.3779   -1.3158    0.9120 H   0  0  0  0  0  0  0  0  0  0  0  0
    1.2456    1.0115    1.0818 H   0  0  0  0  0  0  0  0  0  0  0  0
    1.8262    0.9308   -0.5945 H   0  0  0  0  0  0  0  0  0  0  0  0
    2.5456   -0.1038    0.6505 H   0  0  0  0  0  0  0  0  0  0  0  0
  1  2  1  0
  2  3  1  0
  3  4  1  0
  1  5  1  0
  1  6  1  0
  1  7  1  0
  2  8  1  0
  2  9  1  0
  3 10  1  0
  3 11  1  0
  4 12  1  0
  4 13  1  0
  4 14  1  0
M  END
>  <forcefield>
MMFF94

>  <energy>
-4.2940

>  <delta_energy>
0.7820

>  <conformer>
2

$$$$
butane
     RDKit          3D

 14 13  0  0  0  0  0  0  0  0999 V2000
   -1.6076   -0.3381   -0.2994 C   0  0  0  0  0  0  0  0  0  0  0  0
   -0.5970    0.7570    0.0053 C   0  0  0  0  0  0  0  0  0  0  0  0
    0.7019    0.2330    0.6185 C   0  0  0  0  0  0  0  0  0  0  0  0
    1.5027   -0.6519   -0.3244 C   0  0  0  0  0  0  0  0  0  0  0  0
   -2.5456    0.1038   -0.6505 H   0  0  0  0  0  0  0  0  0  0  0  0
   -1.8262   -0.9308    0.5944 H   0  0  0  0  0  0  0  0  0  0  0  0
   -1.2456   -1.0114   -1.0818 H   0  0  0  0  0  0  0  0  0  0  0  0
   -0.3778    1.3159   -0.9120 H   0  0  0  0  0  0  0  0  0  0  0  0
   -1.0520    1.4659    0.7073 H   0  0  0  0  0  0  0  0  0  0  0  0
    0.4834   -0.3200    1.5394 H   0  0  0  0  0  0  0  0  0  0  0  0
    1.3229    1.0906    0.9035 H   0  0  0  0  0  0  0  0  0  0  0  0
    0.9709   -1.5806   -0.5513 H   0  0  0  0  0  0  0  0  0  0  0  0
    1.7134   -0.1341   -1.2654 H   0  0  0  0  0  0  0  0  0  0  0  0
    2.4590   -0.9215    0.1353 H   0  0  0  0  0  0  0  0  0  0  0  0
  1  2  1  0
  2  3  1  0
  3  4  1  0
  1  5  1  0
  1  6  1  0
  1  7  1  0
  2  8  1  0
  2  9  1  0
  3 10  1  0
  3 11  1  0
  4 12  1  0
  4 13  1  0
  4 14  1  0
M  END
>  <forcefield>
MMFF94

>  <energy>
-4.2940

>  <delta_energy>
0.7820

>  <conformer>
3

$$$$
