phenethyl-acetate
     RDKit          3D

 24 24  0  0  0  0  0  0  0  0999 V2000
    3.3785   -0.5818    1.3803 C   0  0  0  0  0  0  0  0  0  0  0  0
    2.6931   -0.8660    0.0791 C   0  0  0  0  0  0  0  0  0  0  0  0
    2.8297   -1.8971   -0.5634 O   0  0  0  0  0  0  0  0  0  0  0  0
    1.8998    0.1830   -0.2658 O   0  0  0  0  0  0  0  0  0  0  0  0
    1.1760    0.0420   -1.5013 C   0  0  0  0  0  0  0  0  0  0  0  0
   -0.0928   -0.7958   -1.3252 C   0  0  0  0  0  0  0  0  0  0  0  0
   -1.1424   -0.0886   -0.4993 C   0  0  0  0  0  0  0  0  0  0  0  0
   -1.2334   -0.3154    0.8806 C   0  0  0  0  0  0  0  0  0  0  0  0
   -2.1936    0.3491    1.6450 C   0  0  0  0  0  0  0  0  0  0  0  0
   -3.0693    1.2477    1.0387 C   0  0  0  0  0  0  0  0  0  0  0  0
   -2.9854    1.4833   -0.3322 C   0  0  0  0  0  0  0  0  0  0  0  0
   -2.0258    0.8199   -1.0985 C   0  0  0  0  0  0  0  0  0  0  0  0
    2.6344   -0.4581    2.1711 H   0  0  0  0  0  0  0  0  0  0  0  0
    4.0274   -1.4233    1.6395 H   0  0  0  0  0  0  0  0  0  0  0  0
    3.9947    0.3159    1.2869 H   0  0  0  0  0  0  0  0  0  0  0  0
    0.9320    1.0531   -1.8461 H   0  0  0  0  0  0  0  0  0  0  0  0
    1.8262   -0.4019   -2.2650 H   0  0  0  0  0  0  0  0  0  0  0  0
   -0.5169   -1.0236   -2.3109 H   0  0  0  0  0  0  0  0  0  0  0  0
    0.1390   -1.7605   -0.8588 H   0  0  0  0  0  0  0  0  0  0  0  0
   -0.5555   -1.0120    1.3684 H   0  0  0  0  0  0  0  0  0  0  0  0
   -2.2578    0.1656    2.7143 H   0  0  0  0  0  0  0  0  0  0  0  0
   -3.8167    1.7644    1.6347 H   0  0  0  0  0  0  0  0  0  0  0  0
   -3.6678    2.1845   -0.8051 H   0  0  0  0  0  0  0  0  0  0  0  0
   -1.9733    1.0157   -2.1670 H   0  0  0  0  0  0  0  0  0  0  0  0
  1  2  1  0
  2  3  2  0
  2  4  1  0
  4  5  1  0
  5  6  1  0
  6  7  1  0
  7  8  2  0
  8  9  1  0
  9 10  2  0
 10 11  1  0
 11 12  2  0
 12  7  1  0
  1 13  1  0
  1 14  1  0
  1 15  1  0
  5 16  1  0
  5 17  1  0
  6 18  1  0
  6 19  1  0
  8 20  1  0
  9 21  1  0
 10 22  1  0
 11 23  1  0
 12 24  1  0
M  END
>  <forcefield>
MMFF94

>  <energy>
15.2780

>  <delta_energy>
0.0000

>  <conformer>
1

>  <energy_before>
32.6455

$$$$
