phenethyl-acetate
     RDKit          3D

 24 24  0  0  0  0  0  0  0  0999 V2000
    3.3785   -0.5818    1.3803 C   0  0  0  0  0  0  0  0  0  0  0  0
    2.6931   -0.8660    0.0791 C   0  0  0  0  0  0  0  0  0  0  0  0
    2.8297   -1.8971   -0.5634 O   0  0  0  0  0  0  0  0  0  0  0  0
    1.8998    0.1830   -0.2658 O   0  0  0  0  0  0  0  0  0  0  0  0
    1.1760    0.0420   -1.5013 C   0  0  0  0  0  0  0  0  0  0  0  0
   -0.0928   -0.7958   -1.3252 C   0  0  0  0  0  0  0  0  0  0  0  0
   -1.1424   -0.0886   -0.4993 C   0  0  0  0  0  0  0  0  0  0  0  0
   -1.2334   -0.3154    0.8806 C   0  0  0  0  0  0  0  0  0  0  0  0
   -2.1936    0.3491    1.6450 C   0  0  0  0  0  0  0  0  0  0  0  0
   -3.0693    1.2477    1.0387 C   0  0  0  0  0  0  0  0  0  0  0  0
   -2.9854    1.4833   -0.3322 C   0  0  0  0  0  0  0  0  0  0  0  0
   -2.0258    0.8199   -1.0985 C   0  0  0  0  0  0  0  0  0  0  0  0
    2.6344   -0.4581    2.1711 H   0  0  0  0  0  0  0  0  0  0  0  0
    4.0274   -1.4233    1.6395 H   0  0  0  0  0  0  0  0  0  0  0  0
    3.9947    0.3159    1.2869 H   0  0  0  0  0  0  0  0  0  0  0  0
    0.9320    1.0531   -1.8461 H   0  0  0  0  0  0  0  0  0  0  0  0
    1.8262   -0.4019   -2.2650 H   0  0  0  0  0  0  0  0  0  0  0  0
   -0.5169   -1.0236   -2.3109 H   0  0  0  0  0  0  0  0  0  0  0  0
    0.1390   -1.7605   -0.8588 H   0  0  0  0  0  0  0  0  0  0  0  0
   -0.5555   -1.0120    1.3684 H   0  0  0  0  0  0  0  0  0  0  0  0
   -2.2578    0.1656    2.7143 H   0  0  0  0  0  0  0  0  0  0  0  0
   -3.8167    1.7644    1.6347 H   0  0  0  0  0  0  0  0  0  0  0  0
   -3.6678    2.1845   -0.8051 H   0  0  0  0  0  0  0  0  0  0  0  0
   -1.9733    1.0157   -2.1670 H   0  0  0  0  0  0  0  0  0  0  0  0
  1  2  1  0
  2  3  2  0
  2  4  1  0
  4  5  1  0
  5  6  1  0
  6  7  1  0
  7  8  2  0
  8  9  1  0
  9 10  2  0
 10 11  1  0
 11 12  2  0
 12  7  1  0
  1 13  1  0
  1 14  1  0
  1 15  1  0
  5 16  1  0
  5 17  1  0
  6 18  1  0
  6 19  1  0
  8 20  1  0
  9 21  1  0
 10 22  1  0
 11 23  1  0
 12 24  1  0
M  END
>  <forcefield>
MMFF94

>  <energy>
15.2780

>  <delta_energy>
0.0000

>  <conformer>
1

>  <energy_before>
32.6455

$$$$
phenethyl-acetate
     RDKit          3D

 24 24  0  0  0  0  0  0  0  0999 V2000
    3.6206    0.6019    0.4054 C   0  0  0  0  0  0  0  0  0  0  0  0
    2.7813   -0.4349   -0.2759 C   0  0  0  0  0  0  0  0  0  0  0  0
    3.0306   -0.9149   -1.3724 O   0  0  0  0  0  0  0  0  0  0  0  0
    1.7095   -0.7471    0.5002 O   0  0  0  0  0  0  0  0  0  0  0  0
    0.8124   -1.7352   -0.0376 C   0  0  0  0  0  0  0  0  0  0  0  0
   -0.1609   -1.1284   -1.0512 C   0  0  0  0  0  0  0  0  0  0  0  0
   -1.1658   -0.2030   -0.4050 C   0  0  0  0  0  0  0  0  0  0  0  0
   -2.3396   -0.7145    0.1652 C   0  0  0  0  0  0  0  0  0  0  0  0
   -3.2602    0.1396    0.7744 C   0  0  0  0  0  0  0  0  0  0  0  0
   -3.0155    1.5107    0.8221 C   0  0  0  0  0  0  0  0  0  0  0  0
   -1.8499    2.0292    0.2613 C   0  0  0  0  0  0  0  0  0  0  0  0
   -0.9281    1.1769   -0.3485 C   0  0  0  0  0  0  0  0  0  0  0  0
    4.4889    0.8326   -0.2185 H   0  0  0  0  0  0  0  0  0  0  0  0
    3.0382    1.5160    0.5452 H   0  0  0  0  0  0  0  0  0  0  0  0
    3.9750    0.2198    1.3660 H   0  0  0  0  0  0  0  0  0  0  0  0
    0.2724   -2.1718    0.8099 H   0  0  0  0  0  0  0  0  0  0  0  0
    1.3870   -2.5489   -0.4967 H   0  0  0  0  0  0  0  0  0  0  0  0
    0.3805   -0.5800   -1.8310 H   0  0  0  0  0  0  0  0  0  0  0  0
   -0.7033   -1.9345   -1.5607 H   0  0  0  0  0  0  0  0  0  0  0  0
   -2.5456   -1.7820    0.1372 H   0  0  0  0  0  0  0  0  0  0  0  0
   -4.1689   -0.2650    1.2123 H   0  0  0  0  0  0  0  0  0  0  0  0
   -3.7328    2.1750    1.2965 H   0  0  0  0  0  0  0  0  0  0  0  0
   -1.6579    3.0982    0.2990 H   0  0  0  0  0  0  0  0  0  0  0  0
   -0.0219    1.5961   -0.7796 H   0  0  0  0  0  0  0  0  0  0  0  0
  1  2  1  0
  2  3  2  0
  2  4  1  0
  4  5  1  0
  5  6  1  0
  6  7  1  0
  7  8  2  0
  8  9  1  0
  9 10  2  0
 10 11  1  0
 11 12  2  0
 12  7  1  0
  1 13  1  0
  1 14  1  0
  1 15  1  0
  5 16  1  0
  5 17  1  0
  6 18  1  0
  6 19  1  0
  8 20  1  0
  9 21  1  0
 10 22  1  0
 11 23  1  0
 12 24  1  0
M  END
>  <forcefield>
MMFF94

>  <energy>
15.2780

>  <delta_energy>
0.0000

>  <conformer>
2

$$$$
phenethyl-acetate
     RDKit          3D

 24 24  0  0  0  0  0  0  0  0999 V2000
    4.3863   -1.4211   -0.7332 C   0  0  0  0  0  0  0  0  0  0  0  0
    3.0919   -1.0232   -0.0928 C   0  0  0  0  0  0  0  0  0  0  0  0
    2.6366   -1.5339    0.9203 O   0  0  0  0  0  0  0  0  0  0  0  0
    2.5069   -0.0247   -0.8094 O   0  0  0  0  0  0  0  0  0  0  0  0
    1.2590    0.4625   -0.2860 C   0  0  0  0  0  0  0  0  0  0  0  0
    0.1025   -0.4220   -0.7487 C   0  0  0  0  0  0  0  0  0  0  0  0
   -1.2281    0.0929   -0.2663 C   0  0  0  0  0  0  0  0  0  0  0  0
   -1.6956   -0.2467    1.0105 C   0  0  0  0  0  0  0  0  0  0  0  0
   -2.9184    0.2449    1.4690 C   0  0  0  0  0  0  0  0  0  0  0  0
   -3.6823    1.0823    0.6582 C   0  0  0  0  0  0  0  0  0  0  0  0
   -3.2237    1.4297   -0.6113 C   0  0  0  0  0  0  0  0  0  0  0  0
   -2.0008    0.9393   -1.0720 C   0  0  0  0  0  0  0  0  0  0  0  0
    5.0627   -0.5632   -0.7669 H   0  0  0  0  0  0  0  0  0  0  0  0
    4.8563   -2.2109   -0.1402 H   0  0  0  0  0  0  0  0  0  0  0  0
    4.1994   -1.8043   -1.7394 H   0  0  0  0  0  0  0  0  0  0  0  0
    1.1333    1.4811   -0.6709 H   0  0  0  0  0  0  0  0  0  0  0  0
    1.3038    0.5468    0.8071 H   0  0  0  0  0  0  0  0  0  0  0  0
    0.2447   -1.4540   -0.4045 H   0  0  0  0  0  0  0  0  0  0  0  0
    0.1066   -0.4921   -1.8442 H   0  0  0  0  0  0  0  0  0  0  0  0
   -1.1079   -0.8978    1.6552 H   0  0  0  0  0  0  0  0  0  0  0  0
   -3.2744   -0.0257    2.4596 H   0  0  0  0  0  0  0  0  0  0  0  0
   -4.6347    1.4642    1.0159 H   0  0  0  0  0  0  0  0  0  0  0  0
   -3.8192    2.0834   -1.2432 H   0  0  0  0  0  0  0  0  0  0  0  0
   -1.6563    1.2214   -2.0643 H   0  0  0  0  0  0  0  0  0  0  0  0
  1  2  1  0
  2  3  2  0
  2  4  1  0
  4  5  1  0
  5  6  1  0
  6  7  1  0
  7  8  2  0
  8  9  1  0
  9 10  2  0
 10 11  1  0
 11 12  2  0
 12  7  1  0
  1 13  1  0
  1 14  1  0
  1 15  1  0
  5 16  1  0
  5 17  1  0
  6 18  1  0
  6 19  1  0
  8 20  1  0
  9 21  1  0
 10 22  1  0
 11 23  1  0
 12 24  1  0
M  END
>  <forcefield>
MMFF94

>  <energy>
15.2820

>  <delta_energy>
0.0040

>  <conformer>
3

$$$$
phenethyl-acetate
     RDKit          3D

 24 24  0  0  0  0  0  0  0  0999 V2000
    4.3795   -1.5831   -0.2837 C   0  0  0  0  0  0  0  0  0  0  0  0
    3.0805   -0.9036   -0.5912 C   0  0  0  0  0  0  0  0  0  0  0  0
    2.6041   -0.7985   -1.7122 O   0  0  0  0  0  0  0  0  0  0  0  0
    2.5179   -0.4358    0.5566 O   0  0  0  0  0  0  0  0  0  0  0  0
    1.2682    0.2573    0.3947 C   0  0  0  0  0  0  0  0  0  0  0  0
    0.1084   -0.7357    0.3399 C   0  0  0  0  0  0  0  0  0  0  0  0
   -1.2231   -0.0405    0.2290 C   0  0  0  0  0  0  0  0  0  0  0  0
   -1.9737    0.2514    1.3753 C   0  0  0  0  0  0  0  0  0  0  0  0
   -3.1975    0.9139    1.2678 C   0  0  0  0  0  0  0  0  0  0  0  0
   -3.6790    1.2934    0.0161 C   0  0  0  0  0  0  0  0  0  0  0  0
   -2.9372    1.0119   -1.1296 C   0  0  0  0  0  0  0  0  0  0  0  0
   -1.7135    0.3494   -1.0246 C   0  0  0  0  0  0  0  0  0  0  0  0
    5.0663   -0.8750    0.1868 H   0  0  0  0  0  0  0  0  0  0  0  0
    4.8313   -1.9393   -1.2140 H   0  0  0  0  0  0  0  0  0  0  0  0
    4.2032   -2.4412    0.3697 H   0  0  0  0  0  0  0  0  0  0  0  0
    1.1602    0.9172    1.2633 H   0  0  0  0  0  0  0  0  0  0  0  0
    1.2976    0.9083   -0.4881 H   0  0  0  0  0  0  0  0  0  0  0  0
    0.1281   -1.3759    1.2313 H   0  0  0  0  0  0  0  0  0  0  0  0
    0.2334   -1.4284   -0.5017 H   0  0  0  0  0  0  0  0  0  0  0  0
   -1.6111   -0.0363    2.3595 H   0  0  0  0  0  0  0  0  0  0  0  0
   -3.7758    1.1343    2.1612 H   0  0  0  0  0  0  0  0  0  0  0  0
   -4.6322    1.8088   -0.0667 H   0  0  0  0  0  0  0  0  0  0  0  0
   -3.3111    1.3083   -2.1061 H   0  0  0  0  0  0  0  0  0  0  0  0
   -1.1433    0.1380   -1.9273 H   0  0  0  0  0  0  0  0  0  0  0  0
  1  2  1  0
  2  3  2  0
  2  4  1  0
  4  5  1  0
  5  6  1  0
  6  7  1  0
  7  8  2  0
  8  9  1  0
  9 10  2  0
 10 11  1  0
 11 12  2  0
 12  7  1  0
  1 13  1  0
  1 14  1  0
  1 15  1  0
  5 16  1  0
  5 17  1  0
  6 18  1  0
  6 19  1  0
  8 20  1  0
  9 21  1  0
 10 22  1  0
 11 23  1  0
 12 24  1  0
M  END
>  <forcefield>
MMFF94

>  <energy>
15.2820

>  <delta_energy>
0.0040

>  <conformer>
4

$$$$
phenethyl-acetate
     RDKit          3D

 24 24  0  0  0  0  0  0  0  0999 V2000
    3.3459   -1.0623    1.4364 C   0  0  0  0  0  0  0  0  0  0  0  0
    2.6819   -1.2456    0.1064 C   0  0  0  0  0  0  0  0  0  0  0  0
    2.8780   -2.1938   -0.6403 O   0  0  0  0  0  0  0  0  0  0  0  0
    1.8439   -0.2033   -0.1419 O   0  0  0  0  0  0  0  0  0  0  0  0
    1.1270   -0.3067   -1.3824 C   0  0  0  0  0  0  0  0  0  0  0  0
    0.1667    0.8753   -1.5130 C   0  0  0  0  0  0  0  0  0  0  0  0
   -1.0290    0.7518   -0.5972 C   0  0  0  0  0  0  0  0  0  0  0  0
   -0.9852    1.2713    0.7035 C   0  0  0  0  0  0  0  0  0  0  0  0
   -2.0841    1.1429    1.5543 C   0  0  0  0  0  0  0  0  0  0  0  0
   -3.2347    0.4913    1.1147 C   0  0  0  0  0  0  0  0  0  0  0  0
   -3.2870   -0.0340   -0.1750 C   0  0  0  0  0  0  0  0  0  0  0  0
   -2.1890    0.0933   -1.0274 C   0  0  0  0  0  0  0  0  0  0  0  0
    2.5900   -1.0113    2.2242 H   0  0  0  0  0  0  0  0  0  0  0  0
    3.9988   -1.9168    1.6364 H   0  0  0  0  0  0  0  0  0  0  0  0
    3.9528   -0.1536    1.4254 H   0  0  0  0  0  0  0  0  0  0  0  0
    1.8525   -0.2665   -2.2035 H   0  0  0  0  0  0  0  0  0  0  0  0
    0.5848   -1.2591   -1.4248 H   0  0  0  0  0  0  0  0  0  0  0  0
    0.6895    1.8151   -1.2955 H   0  0  0  0  0  0  0  0  0  0  0  0
   -0.1875    0.9455   -2.5488 H   0  0  0  0  0  0  0  0  0  0  0  0
   -0.0910    1.7763    1.0622 H   0  0  0  0  0  0  0  0  0  0  0  0
   -2.0412    1.5499    2.5611 H   0  0  0  0  0  0  0  0  0  0  0  0
   -4.0898    0.3910    1.7778 H   0  0  0  0  0  0  0  0  0  0  0  0
   -4.1833   -0.5448   -0.5171 H   0  0  0  0  0  0  0  0  0  0  0  0
   -2.2456   -0.3254   -2.0296 H   0  0  0  0  0  0  0  0  0  0  0  0
  1  2  1  0
  2  3  2  0
  2  4  1  0
  4  5  1  0
  5  6  1  0
  6  7  1  0
  7  8  2  0
  8  9  1  0
  9 10  2  0
 10 11  1  0
 11 12  2  0
 12  7  1  0
  1 13  1  0
  1 14  1  0
  1 15  1  0
  5 16  1  0
  5 17  1  0
  6 18  1  0
  6 19  1  0
  8 20  1  0
  9 21  1  0
 10 22  1  0
 11 23  1  0
 12 24  1  0
M  END
>  <forcefield>
MMFF94

>  <energy>
15.3320

>  <delta_energy>
0.0540

>  <conformer>
5

$$$$
phenethyl-acetate
     RDKit          3D

 24 24  0  0  0  0  0  0  0  0999 V2000
    3.3839   -0.9431    1.4263 C   0  0  0  0  0  0  0  0  0  0  0  0
    2.8821   -0.6179    0.0530 C   0  0  0  0  0  0  0  0  0  0  0  0
    3.5511   -0.0833   -0.8197 O   0  0  0  0  0  0  0  0  0  0  0  0
    1.5862   -1.0116   -0.0732 O   0  0  0  0  0  0  0  0  0  0  0  0
    0.9996   -0.7064   -1.3484 C   0  0  0  0  0  0  0  0  0  0  0  0
   -0.4708   -1.1239   -1.3430 C   0  0  0  0  0  0  0  0  0  0  0  0
   -1.3314   -0.1965   -0.5166 C   0  0  0  0  0  0  0  0  0  0  0  0
   -1.5309   -0.4396    0.8490 C   0  0  0  0  0  0  0  0  0  0  0  0
   -2.3127    0.4260    1.6153 C   0  0  0  0  0  0  0  0  0  0  0  0
   -2.8990    1.5440    1.0252 C   0  0  0  0  0  0  0  0  0  0  0  0
   -2.7026    1.7984   -0.3308 C   0  0  0  0  0  0  0  0  0  0  0  0
   -1.9209    0.9339   -1.0989 C   0  0  0  0  0  0  0  0  0  0  0  0
    4.4183   -0.6014    1.5245 H   0  0  0  0  0  0  0  0  0  0  0  0
    3.3563   -2.0240    1.5845 H   0  0  0  0  0  0  0  0  0  0  0  0
    2.7759   -0.4285    2.1747 H   0  0  0  0  0  0  0  0  0  0  0  0
    1.5287   -1.2819   -2.1171 H   0  0  0  0  0  0  0  0  0  0  0  0
    1.1025    0.3643   -1.5629 H   0  0  0  0  0  0  0  0  0  0  0  0
   -0.8511   -1.1354   -2.3719 H   0  0  0  0  0  0  0  0  0  0  0  0
   -0.5738   -2.1463   -0.9587 H   0  0  0  0  0  0  0  0  0  0  0  0
   -1.0735   -1.3047    1.3242 H   0  0  0  0  0  0  0  0  0  0  0  0
   -2.4625    0.2287    2.6734 H   0  0  0  0  0  0  0  0  0  0  0  0
   -3.5072    2.2181    1.6224 H   0  0  0  0  0  0  0  0  0  0  0  0
   -3.1575    2.6718   -0.7906 H   0  0  0  0  0  0  0  0  0  0  0  0
   -1.7754    1.1492   -2.1550 H   0  0  0  0  0  0  0  0  0  0  0  0
  1  2  1  0
  2  3  2  0
  2  4  1  0
  4  5  1  0
  5  6  1  0
  6  7  1  0
  7  8  2  0
  8  9  1  0
  9 10  2  0
 10 11  1  0
 11 12  2  0
 12  7  1  0
  1 13  1  0
  1 14  1  0
  1 15  1  0
  5 16  1  0
  5 17  1  0
  6 18  1  0
  6 19  1  0
  8 20  1  0
  9 21  1  0
 10 22  1  0
 11 23  1  0
 12 24  1  0
M  END
>  <forcefield>
MMFF94

>  <energy>
15.3320

>  <delta_energy>
0.0540

>  <conformer>
6

$$$$
phenethyl-acetate
     RDKit          3D

 24 24  0  0  0  0  0  0  0  0999 V2000
    4.6667   -0.9391   -0.3975 C   0  0  0  0  0  0  0  0  0  0  0  0
    3.2104   -1.2895   -0.3785 C   0  0  0  0  0  0  0  0  0  0  0  0
    2.7697   -2.4212   -0.5177 O   0  0  0  0  0  0  0  0  0  0  0  0
    2.4646   -0.1678   -0.1847 O   0  0  0  0  0  0  0  0  0  0  0  0
    1.0479   -0.4008   -0.1509 C   0  0  0  0  0  0  0  0  0  0  0  0
    0.3497    0.9381    0.0713 C   0  0  0  0  0  0  0  0  0  0  0  0
   -1.1488    0.7982    0.1221 C   0  0  0  0  0  0  0  0  0  0  0  0
   -1.7981    0.5483    1.3384 C   0  0  0  0  0  0  0  0  0  0  0  0
   -3.1851    0.3986    1.3814 C   0  0  0  0  0  0  0  0  0  0  0  0
   -3.9343    0.4931    0.2102 C   0  0  0  0  0  0  0  0  0  0  0  0
   -3.2975    0.7361   -1.0053 C   0  0  0  0  0  0  0  0  0  0  0  0
   -1.9107    0.8862   -1.0506 C   0  0  0  0  0  0  0  0  0  0  0  0
    5.2560   -1.8472   -0.5537 H   0  0  0  0  0  0  0  0  0  0  0  0
    4.9543   -0.4978    0.5600 H   0  0  0  0  0  0  0  0  0  0  0  0
    4.8706   -0.2464   -1.2179 H   0  0  0  0  0  0  0  0  0  0  0  0
    0.8122   -1.0941    0.6658 H   0  0  0  0  0  0  0  0  0  0  0  0
    0.7289   -0.8441   -1.1023 H   0  0  0  0  0  0  0  0  0  0  0  0
    0.7153    1.3998    0.9978 H   0  0  0  0  0  0  0  0  0  0  0  0
    0.6343    1.6429   -0.7209 H   0  0  0  0  0  0  0  0  0  0  0  0
   -1.2277    0.4686    2.2612 H   0  0  0  0  0  0  0  0  0  0  0  0
   -3.6813    0.2066    2.3292 H   0  0  0  0  0  0  0  0  0  0  0  0
   -5.0142    0.3756    0.2445 H   0  0  0  0  0  0  0  0  0  0  0  0
   -3.8814    0.8074   -1.9193 H   0  0  0  0  0  0  0  0  0  0  0  0
   -1.4288    1.0722   -2.0079 H   0  0  0  0  0  0  0  0  0  0  0  0
  1  2  1  0
  2  3  2  0
  2  4  1  0
  4  5  1  0
  5  6  1  0
  6  7  1  0
  7  8  2  0
  8  9  1  0
  9 10  2  0
 10 11  1  0
 11 12  2  0
 12  7  1  0
  1 13  1  0
  1 14  1  0
  1 15  1  0
  5 16  1  0
  5 17  1  0
  6 18  1  0
  6 19  1  0
  8 20  1  0
  9 21  1  0
 10 22  1  0
 11 23  1  0
 12 24  1  0
M  END
>  <forcefield>
MMFF94

>  <energy>
15.7580

>  <delta_energy>
0.4800

>  <conformer>
7

$$$$
